<?xml version="1.0" encoding="UTF-8"?>

<!-- generated on 2023-04-02 22:01:23 by Eclipse SUMO sumo Version 1.16.0
<configuration xmlns:xsi="http://www.w3.org/2001/XMLSchema-instance" xsi:noNamespaceSchemaLocation="http://sumo.dlr.de/xsd/sumoConfiguration.xsd">

    <input>
        <net-file value="exp.net.xml"/>
        <route-files value="exp.rou.xml"/>
        <additional-files value="exp.add.xml"/>
    </input>

    <output>
        <tripinfo-output value="exp.trips.xml"/>
    </output>

    <time>
        <begin value="0"/>
        <end value="3600"/>
    </time>

    <traci_server>
        <remote-port value="56939"/>
    </traci_server>

</configuration>
